// Point Netlist Generated on: May  7 10:32:04 2024
// Generated for: spectre
// Design Netlist Generated on: May  7 10:32:04 2024
// Design library name: 1_MOS
// Design cell name: 1000x10_tb_netlist
// Design view name: schematic
simulator lang=spectre
global 0
parameters temperature=27
include "$TSMC_PDK/models/spectre/toplevel.scs" section=tt_lib
// Library name: 1_MOS
// Cell name: mul_col_10
// View name: schematic
subckt mul_col_10 INA\<9\> INA\<8\> INA\<7\> INA\<6\> INA\<5\> INA\<4\> \
        INA\<3\> INA\<2\> INA\<1\> INA\<0\> INB\<9\> INB\<8\> INB\<7\> \
        INB\<6\> INB\<5\> INB\<4\> INB\<3\> INB\<2\> INB\<1\> INB\<0\> OUT \
        VDD
    M0 (OUT INA\<0\> VDD INB\<0\>) pch l=60n w=200n m=1 nf=1 sd=200n \
        ad=3.5e-14 as=3.5e-14 pd=750n ps=750n nrd=0.5 nrs=0.5 sa=175n \
        sb=175n sca=0 scb=0 scc=0
    M3 (OUT INA\<1\> VDD INB\<1\>) pch l=60n w=200n m=1 nf=1 sd=200n \
        ad=3.5e-14 as=3.5e-14 pd=750n ps=750n nrd=0.5 nrs=0.5 sa=175n \
        sb=175n sca=0 scb=0 scc=0
    M5 (OUT INA\<2\> VDD INB\<2\>) pch l=60n w=200n m=1 nf=1 sd=200n \
        ad=3.5e-14 as=3.5e-14 pd=750n ps=750n nrd=0.5 nrs=0.5 sa=175n \
        sb=175n sca=0 scb=0 scc=0
    M6 (OUT INA\<3\> VDD INB\<3\>) pch l=60n w=200n m=1 nf=1 sd=200n \
        ad=3.5e-14 as=3.5e-14 pd=750n ps=750n nrd=0.5 nrs=0.5 sa=175n \
        sb=175n sca=0 scb=0 scc=0
    M9 (OUT INA\<4\> VDD INB\<4\>) pch l=60n w=200n m=1 nf=1 sd=200n \
        ad=3.5e-14 as=3.5e-14 pd=750n ps=750n nrd=0.5 nrs=0.5 sa=175n \
        sb=175n sca=0 scb=0 scc=0
    M10 (OUT INA\<5\> VDD INB\<5\>) pch l=60n w=200n m=1 nf=1 sd=200n \
        ad=3.5e-14 as=3.5e-14 pd=750n ps=750n nrd=0.5 nrs=0.5 sa=175n \
        sb=175n sca=0 scb=0 scc=0
    M13 (OUT INA\<6\> VDD INB\<6\>) pch l=60n w=200n m=1 nf=1 sd=200n \
        ad=3.5e-14 as=3.5e-14 pd=750n ps=750n nrd=0.5 nrs=0.5 sa=175n \
        sb=175n sca=0 scb=0 scc=0
    M14 (OUT INA\<7\> VDD INB\<7\>) pch l=60n w=200n m=1 nf=1 sd=200n \
        ad=3.5e-14 as=3.5e-14 pd=750n ps=750n nrd=0.5 nrs=0.5 sa=175n \
        sb=175n sca=0 scb=0 scc=0
    M17 (OUT INA\<8\> VDD INB\<8\>) pch l=60n w=200n m=1 nf=1 sd=200n \
        ad=3.5e-14 as=3.5e-14 pd=750n ps=750n nrd=0.5 nrs=0.5 sa=175n \
        sb=175n sca=0 scb=0 scc=0
    M18 (OUT INA\<9\> VDD INB\<9\>) pch l=60n w=200n m=1 nf=1 sd=200n \
        ad=3.5e-14 as=3.5e-14 pd=750n ps=750n nrd=0.5 nrs=0.5 sa=175n \
        sb=175n sca=0 scb=0 scc=0
ends mul_col_10
// End of subcircuit definition.

// Library name: 1_MOS
// Cell name: mul_col_100
// View name: schematic
subckt mul_col_100 INA\<0\> INA\<1\> INA\<2\> INA\<3\> INA\<4\> INA\<5\> \
        INA\<6\> INA\<7\> INA\<8\> INA\<9\> INA\<10\> INA\<11\> INA\<12\> \
        INA\<13\> INA\<14\> INA\<15\> INA\<16\> INA\<17\> INA\<18\> \
        INA\<19\> INA\<20\> INA\<21\> INA\<22\> INA\<23\> INA\<24\> \
        INA\<25\> INA\<26\> INA\<27\> INA\<28\> INA\<29\> INA\<30\> \
        INA\<31\> INA\<32\> INA\<33\> INA\<34\> INA\<35\> INA\<36\> \
        INA\<37\> INA\<38\> INA\<39\> INA\<40\> INA\<41\> INA\<42\> \
        INA\<43\> INA\<44\> INA\<45\> INA\<46\> INA\<47\> INA\<48\> \
        INA\<49\> INA\<50\> INA\<51\> INA\<52\> INA\<53\> INA\<54\> \
        INA\<55\> INA\<56\> INA\<57\> INA\<58\> INA\<59\> INA\<60\> \
        INA\<61\> INA\<62\> INA\<63\> INA\<64\> INA\<65\> INA\<66\> \
        INA\<67\> INA\<68\> INA\<69\> INA\<70\> INA\<71\> INA\<72\> \
        INA\<73\> INA\<74\> INA\<75\> INA\<76\> INA\<77\> INA\<78\> \
        INA\<79\> INA\<80\> INA\<81\> INA\<82\> INA\<83\> INA\<84\> \
        INA\<85\> INA\<86\> INA\<87\> INA\<88\> INA\<89\> INA\<90\> \
        INA\<91\> INA\<92\> INA\<93\> INA\<94\> INA\<95\> INA\<96\> \
        INA\<97\> INA\<98\> INA\<99\> INB\<0\> INB\<1\> INB\<2\> INB\<3\> \
        INB\<4\> INB\<5\> INB\<6\> INB\<7\> INB\<8\> INB\<9\> INB\<10\> \
        INB\<11\> INB\<12\> INB\<13\> INB\<14\> INB\<15\> INB\<16\> \
        INB\<17\> INB\<18\> INB\<19\> INB\<20\> INB\<21\> INB\<22\> \
        INB\<23\> INB\<24\> INB\<25\> INB\<26\> INB\<27\> INB\<28\> \
        INB\<29\> INB\<30\> INB\<31\> INB\<32\> INB\<33\> INB\<34\> \
        INB\<35\> INB\<36\> INB\<37\> INB\<38\> INB\<39\> INB\<40\> \
        INB\<41\> INB\<42\> INB\<43\> INB\<44\> INB\<45\> INB\<46\> \
        INB\<47\> INB\<48\> INB\<49\> INB\<50\> INB\<51\> INB\<52\> \
        INB\<53\> INB\<54\> INB\<55\> INB\<56\> INB\<57\> INB\<58\> \
        INB\<59\> INB\<60\> INB\<61\> INB\<62\> INB\<63\> INB\<64\> \
        INB\<65\> INB\<66\> INB\<67\> INB\<68\> INB\<69\> INB\<70\> \
        INB\<71\> INB\<72\> INB\<73\> INB\<74\> INB\<75\> INB\<76\> \
        INB\<77\> INB\<78\> INB\<79\> INB\<80\> INB\<81\> INB\<82\> \
        INB\<83\> INB\<84\> INB\<85\> INB\<86\> INB\<87\> INB\<88\> \
        INB\<89\> INB\<90\> INB\<91\> INB\<92\> INB\<93\> INB\<94\> \
        INB\<95\> INB\<96\> INB\<97\> INB\<98\> INB\<99\> OUT VDD
    I9 (INA\<90\> INA\<91\> INA\<92\> INA\<93\> INA\<94\> INA\<95\> \
        INA\<96\> INA\<97\> INA\<98\> INA\<99\> INB\<90\> INB\<91\> \
        INB\<92\> INB\<93\> INB\<94\> INB\<95\> INB\<96\> INB\<97\> \
        INB\<98\> INB\<99\> OUT VDD) mul_col_10
    I8 (INA\<80\> INA\<81\> INA\<82\> INA\<83\> INA\<84\> INA\<85\> \
        INA\<86\> INA\<87\> INA\<88\> INA\<89\> INB\<80\> INB\<81\> \
        INB\<82\> INB\<83\> INB\<84\> INB\<85\> INB\<86\> INB\<87\> \
        INB\<88\> INB\<89\> OUT VDD) mul_col_10
    I7 (INA\<70\> INA\<71\> INA\<72\> INA\<73\> INA\<74\> INA\<75\> \
        INA\<76\> INA\<77\> INA\<78\> INA\<79\> INB\<70\> INB\<71\> \
        INB\<72\> INB\<73\> INB\<74\> INB\<75\> INB\<76\> INB\<77\> \
        INB\<78\> INB\<79\> OUT VDD) mul_col_10
    I6 (INA\<60\> INA\<61\> INA\<62\> INA\<63\> INA\<64\> INA\<65\> \
        INA\<66\> INA\<67\> INA\<68\> INA\<69\> INB\<60\> INB\<61\> \
        INB\<62\> INB\<63\> INB\<64\> INB\<65\> INB\<66\> INB\<67\> \
        INB\<68\> INB\<69\> OUT VDD) mul_col_10
    I5 (INA\<50\> INA\<51\> INA\<52\> INA\<53\> INA\<54\> INA\<55\> \
        INA\<56\> INA\<57\> INA\<58\> INA\<59\> INB\<50\> INB\<51\> \
        INB\<52\> INB\<53\> INB\<54\> INB\<55\> INB\<56\> INB\<57\> \
        INB\<58\> INB\<59\> OUT VDD) mul_col_10
    I4 (INA\<40\> INA\<41\> INA\<42\> INA\<43\> INA\<44\> INA\<45\> \
        INA\<46\> INA\<47\> INA\<48\> INA\<49\> INB\<40\> INB\<41\> \
        INB\<42\> INB\<43\> INB\<44\> INB\<45\> INB\<46\> INB\<47\> \
        INB\<48\> INB\<49\> OUT VDD) mul_col_10
    I3 (INA\<30\> INA\<31\> INA\<32\> INA\<33\> INA\<34\> INA\<35\> \
        INA\<36\> INA\<37\> INA\<38\> INA\<39\> INB\<30\> INB\<31\> \
        INB\<32\> INB\<33\> INB\<34\> INB\<35\> INB\<36\> INB\<37\> \
        INB\<38\> INB\<39\> OUT VDD) mul_col_10
    I2 (INA\<20\> INA\<21\> INA\<22\> INA\<23\> INA\<24\> INA\<25\> \
        INA\<26\> INA\<27\> INA\<28\> INA\<29\> INB\<20\> INB\<21\> \
        INB\<22\> INB\<23\> INB\<24\> INB\<25\> INB\<26\> INB\<27\> \
        INB\<28\> INB\<29\> OUT VDD) mul_col_10
    I1 (INA\<10\> INA\<11\> INA\<12\> INA\<13\> INA\<14\> INA\<15\> \
        INA\<16\> INA\<17\> INA\<18\> INA\<19\> INB\<10\> INB\<11\> \
        INB\<12\> INB\<13\> INB\<14\> INB\<15\> INB\<16\> INB\<17\> \
        INB\<18\> INB\<19\> OUT VDD) mul_col_10
    I0 (INA\<0\> INA\<1\> INA\<2\> INA\<3\> INA\<4\> INA\<5\> INA\<6\> \
        INA\<7\> INA\<8\> INA\<9\> INB\<0\> INB\<1\> INB\<2\> INB\<3\> \
        INB\<4\> INB\<5\> INB\<6\> INB\<7\> INB\<8\> INB\<9\> OUT VDD) \
        mul_col_10
ends mul_col_100
// End of subcircuit definition.

// Library name: 1_MOS
// Cell name: mul_col_1000
// View name: schematic
subckt mul_col_1000 INA\<0\> INA\<1\> INA\<2\> INA\<3\> INA\<4\> INA\<5\> \
        INA\<6\> INA\<7\> INA\<8\> INA\<9\> INA\<10\> INA\<11\> INA\<12\> \
        INA\<13\> INA\<14\> INA\<15\> INA\<16\> INA\<17\> INA\<18\> \
        INA\<19\> INA\<20\> INA\<21\> INA\<22\> INA\<23\> INA\<24\> \
        INA\<25\> INA\<26\> INA\<27\> INA\<28\> INA\<29\> INA\<30\> \
        INA\<31\> INA\<32\> INA\<33\> INA\<34\> INA\<35\> INA\<36\> \
        INA\<37\> INA\<38\> INA\<39\> INA\<40\> INA\<41\> INA\<42\> \
        INA\<43\> INA\<44\> INA\<45\> INA\<46\> INA\<47\> INA\<48\> \
        INA\<49\> INA\<50\> INA\<51\> INA\<52\> INA\<53\> INA\<54\> \
        INA\<55\> INA\<56\> INA\<57\> INA\<58\> INA\<59\> INA\<60\> \
        INA\<61\> INA\<62\> INA\<63\> INA\<64\> INA\<65\> INA\<66\> \
        INA\<67\> INA\<68\> INA\<69\> INA\<70\> INA\<71\> INA\<72\> \
        INA\<73\> INA\<74\> INA\<75\> INA\<76\> INA\<77\> INA\<78\> \
        INA\<79\> INA\<80\> INA\<81\> INA\<82\> INA\<83\> INA\<84\> \
        INA\<85\> INA\<86\> INA\<87\> INA\<88\> INA\<89\> INA\<90\> \
        INA\<91\> INA\<92\> INA\<93\> INA\<94\> INA\<95\> INA\<96\> \
        INA\<97\> INA\<98\> INA\<99\> INA\<100\> INA\<101\> INA\<102\> \
        INA\<103\> INA\<104\> INA\<105\> INA\<106\> INA\<107\> INA\<108\> \
        INA\<109\> INA\<110\> INA\<111\> INA\<112\> INA\<113\> INA\<114\> \
        INA\<115\> INA\<116\> INA\<117\> INA\<118\> INA\<119\> INA\<120\> \
        INA\<121\> INA\<122\> INA\<123\> INA\<124\> INA\<125\> INA\<126\> \
        INA\<127\> INA\<128\> INA\<129\> INA\<130\> INA\<131\> INA\<132\> \
        INA\<133\> INA\<134\> INA\<135\> INA\<136\> INA\<137\> INA\<138\> \
        INA\<139\> INA\<140\> INA\<141\> INA\<142\> INA\<143\> INA\<144\> \
        INA\<145\> INA\<146\> INA\<147\> INA\<148\> INA\<149\> INA\<150\> \
        INA\<151\> INA\<152\> INA\<153\> INA\<154\> INA\<155\> INA\<156\> \
        INA\<157\> INA\<158\> INA\<159\> INA\<160\> INA\<161\> INA\<162\> \
        INA\<163\> INA\<164\> INA\<165\> INA\<166\> INA\<167\> INA\<168\> \
        INA\<169\> INA\<170\> INA\<171\> INA\<172\> INA\<173\> INA\<174\> \
        INA\<175\> INA\<176\> INA\<177\> INA\<178\> INA\<179\> INA\<180\> \
        INA\<181\> INA\<182\> INA\<183\> INA\<184\> INA\<185\> INA\<186\> \
        INA\<187\> INA\<188\> INA\<189\> INA\<190\> INA\<191\> INA\<192\> \
        INA\<193\> INA\<194\> INA\<195\> INA\<196\> INA\<197\> INA\<198\> \
        INA\<199\> INA\<200\> INA\<201\> INA\<202\> INA\<203\> INA\<204\> \
        INA\<205\> INA\<206\> INA\<207\> INA\<208\> INA\<209\> INA\<210\> \
        INA\<211\> INA\<212\> INA\<213\> INA\<214\> INA\<215\> INA\<216\> \
        INA\<217\> INA\<218\> INA\<219\> INA\<220\> INA\<221\> INA\<222\> \
        INA\<223\> INA\<224\> INA\<225\> INA\<226\> INA\<227\> INA\<228\> \
        INA\<229\> INA\<230\> INA\<231\> INA\<232\> INA\<233\> INA\<234\> \
        INA\<235\> INA\<236\> INA\<237\> INA\<238\> INA\<239\> INA\<240\> \
        INA\<241\> INA\<242\> INA\<243\> INA\<244\> INA\<245\> INA\<246\> \
        INA\<247\> INA\<248\> INA\<249\> INA\<250\> INA\<251\> INA\<252\> \
        INA\<253\> INA\<254\> INA\<255\> INA\<256\> INA\<257\> INA\<258\> \
        INA\<259\> INA\<260\> INA\<261\> INA\<262\> INA\<263\> INA\<264\> \
        INA\<265\> INA\<266\> INA\<267\> INA\<268\> INA\<269\> INA\<270\> \
        INA\<271\> INA\<272\> INA\<273\> INA\<274\> INA\<275\> INA\<276\> \
        INA\<277\> INA\<278\> INA\<279\> INA\<280\> INA\<281\> INA\<282\> \
        INA\<283\> INA\<284\> INA\<285\> INA\<286\> INA\<287\> INA\<288\> \
        INA\<289\> INA\<290\> INA\<291\> INA\<292\> INA\<293\> INA\<294\> \
        INA\<295\> INA\<296\> INA\<297\> INA\<298\> INA\<299\> INA\<300\> \
        INA\<301\> INA\<302\> INA\<303\> INA\<304\> INA\<305\> INA\<306\> \
        INA\<307\> INA\<308\> INA\<309\> INA\<310\> INA\<311\> INA\<312\> \
        INA\<313\> INA\<314\> INA\<315\> INA\<316\> INA\<317\> INA\<318\> \
        INA\<319\> INA\<320\> INA\<321\> INA\<322\> INA\<323\> INA\<324\> \
        INA\<325\> INA\<326\> INA\<327\> INA\<328\> INA\<329\> INA\<330\> \
        INA\<331\> INA\<332\> INA\<333\> INA\<334\> INA\<335\> INA\<336\> \
        INA\<337\> INA\<338\> INA\<339\> INA\<340\> INA\<341\> INA\<342\> \
        INA\<343\> INA\<344\> INA\<345\> INA\<346\> INA\<347\> INA\<348\> \
        INA\<349\> INA\<350\> INA\<351\> INA\<352\> INA\<353\> INA\<354\> \
        INA\<355\> INA\<356\> INA\<357\> INA\<358\> INA\<359\> INA\<360\> \
        INA\<361\> INA\<362\> INA\<363\> INA\<364\> INA\<365\> INA\<366\> \
        INA\<367\> INA\<368\> INA\<369\> INA\<370\> INA\<371\> INA\<372\> \
        INA\<373\> INA\<374\> INA\<375\> INA\<376\> INA\<377\> INA\<378\> \
        INA\<379\> INA\<380\> INA\<381\> INA\<382\> INA\<383\> INA\<384\> \
        INA\<385\> INA\<386\> INA\<387\> INA\<388\> INA\<389\> INA\<390\> \
        INA\<391\> INA\<392\> INA\<393\> INA\<394\> INA\<395\> INA\<396\> \
        INA\<397\> INA\<398\> INA\<399\> INA\<400\> INA\<401\> INA\<402\> \
        INA\<403\> INA\<404\> INA\<405\> INA\<406\> INA\<407\> INA\<408\> \
        INA\<409\> INA\<410\> INA\<411\> INA\<412\> INA\<413\> INA\<414\> \
        INA\<415\> INA\<416\> INA\<417\> INA\<418\> INA\<419\> INA\<420\> \
        INA\<421\> INA\<422\> INA\<423\> INA\<424\> INA\<425\> INA\<426\> \
        INA\<427\> INA\<428\> INA\<429\> INA\<430\> INA\<431\> INA\<432\> \
        INA\<433\> INA\<434\> INA\<435\> INA\<436\> INA\<437\> INA\<438\> \
        INA\<439\> INA\<440\> INA\<441\> INA\<442\> INA\<443\> INA\<444\> \
        INA\<445\> INA\<446\> INA\<447\> INA\<448\> INA\<449\> INA\<450\> \
        INA\<451\> INA\<452\> INA\<453\> INA\<454\> INA\<455\> INA\<456\> \
        INA\<457\> INA\<458\> INA\<459\> INA\<460\> INA\<461\> INA\<462\> \
        INA\<463\> INA\<464\> INA\<465\> INA\<466\> INA\<467\> INA\<468\> \
        INA\<469\> INA\<470\> INA\<471\> INA\<472\> INA\<473\> INA\<474\> \
        INA\<475\> INA\<476\> INA\<477\> INA\<478\> INA\<479\> INA\<480\> \
        INA\<481\> INA\<482\> INA\<483\> INA\<484\> INA\<485\> INA\<486\> \
        INA\<487\> INA\<488\> INA\<489\> INA\<490\> INA\<491\> INA\<492\> \
        INA\<493\> INA\<494\> INA\<495\> INA\<496\> INA\<497\> INA\<498\> \
        INA\<499\> INA\<500\> INA\<501\> INA\<502\> INA\<503\> INA\<504\> \
        INA\<505\> INA\<506\> INA\<507\> INA\<508\> INA\<509\> INA\<510\> \
        INA\<511\> INA\<512\> INA\<513\> INA\<514\> INA\<515\> INA\<516\> \
        INA\<517\> INA\<518\> INA\<519\> INA\<520\> INA\<521\> INA\<522\> \
        INA\<523\> INA\<524\> INA\<525\> INA\<526\> INA\<527\> INA\<528\> \
        INA\<529\> INA\<530\> INA\<531\> INA\<532\> INA\<533\> INA\<534\> \
        INA\<535\> INA\<536\> INA\<537\> INA\<538\> INA\<539\> INA\<540\> \
        INA\<541\> INA\<542\> INA\<543\> INA\<544\> INA\<545\> INA\<546\> \
        INA\<547\> INA\<548\> INA\<549\> INA\<550\> INA\<551\> INA\<552\> \
        INA\<553\> INA\<554\> INA\<555\> INA\<556\> INA\<557\> INA\<558\> \
        INA\<559\> INA\<560\> INA\<561\> INA\<562\> INA\<563\> INA\<564\> \
        INA\<565\> INA\<566\> INA\<567\> INA\<568\> INA\<569\> INA\<570\> \
        INA\<571\> INA\<572\> INA\<573\> INA\<574\> INA\<575\> INA\<576\> \
        INA\<577\> INA\<578\> INA\<579\> INA\<580\> INA\<581\> INA\<582\> \
        INA\<583\> INA\<584\> INA\<585\> INA\<586\> INA\<587\> INA\<588\> \
        INA\<589\> INA\<590\> INA\<591\> INA\<592\> INA\<593\> INA\<594\> \
        INA\<595\> INA\<596\> INA\<597\> INA\<598\> INA\<599\> INA\<600\> \
        INA\<601\> INA\<602\> INA\<603\> INA\<604\> INA\<605\> INA\<606\> \
        INA\<607\> INA\<608\> INA\<609\> INA\<610\> INA\<611\> INA\<612\> \
        INA\<613\> INA\<614\> INA\<615\> INA\<616\> INA\<617\> INA\<618\> \
        INA\<619\> INA\<620\> INA\<621\> INA\<622\> INA\<623\> INA\<624\> \
        INA\<625\> INA\<626\> INA\<627\> INA\<628\> INA\<629\> INA\<630\> \
        INA\<631\> INA\<632\> INA\<633\> INA\<634\> INA\<635\> INA\<636\> \
        INA\<637\> INA\<638\> INA\<639\> INA\<640\> INA\<641\> INA\<642\> \
        INA\<643\> INA\<644\> INA\<645\> INA\<646\> INA\<647\> INA\<648\> \
        INA\<649\> INA\<650\> INA\<651\> INA\<652\> INA\<653\> INA\<654\> \
        INA\<655\> INA\<656\> INA\<657\> INA\<658\> INA\<659\> INA\<660\> \
        INA\<661\> INA\<662\> INA\<663\> INA\<664\> INA\<665\> INA\<666\> \
        INA\<667\> INA\<668\> INA\<669\> INA\<670\> INA\<671\> INA\<672\> \
        INA\<673\> INA\<674\> INA\<675\> INA\<676\> INA\<677\> INA\<678\> \
        INA\<679\> INA\<680\> INA\<681\> INA\<682\> INA\<683\> INA\<684\> \
        INA\<685\> INA\<686\> INA\<687\> INA\<688\> INA\<689\> INA\<690\> \
        INA\<691\> INA\<692\> INA\<693\> INA\<694\> INA\<695\> INA\<696\> \
        INA\<697\> INA\<698\> INA\<699\> INA\<700\> INA\<701\> INA\<702\> \
        INA\<703\> INA\<704\> INA\<705\> INA\<706\> INA\<707\> INA\<708\> \
        INA\<709\> INA\<710\> INA\<711\> INA\<712\> INA\<713\> INA\<714\> \
        INA\<715\> INA\<716\> INA\<717\> INA\<718\> INA\<719\> INA\<720\> \
        INA\<721\> INA\<722\> INA\<723\> INA\<724\> INA\<725\> INA\<726\> \
        INA\<727\> INA\<728\> INA\<729\> INA\<730\> INA\<731\> INA\<732\> \
        INA\<733\> INA\<734\> INA\<735\> INA\<736\> INA\<737\> INA\<738\> \
        INA\<739\> INA\<740\> INA\<741\> INA\<742\> INA\<743\> INA\<744\> \
        INA\<745\> INA\<746\> INA\<747\> INA\<748\> INA\<749\> INA\<750\> \
        INA\<751\> INA\<752\> INA\<753\> INA\<754\> INA\<755\> INA\<756\> \
        INA\<757\> INA\<758\> INA\<759\> INA\<760\> INA\<761\> INA\<762\> \
        INA\<763\> INA\<764\> INA\<765\> INA\<766\> INA\<767\> INA\<768\> \
        INA\<769\> INA\<770\> INA\<771\> INA\<772\> INA\<773\> INA\<774\> \
        INA\<775\> INA\<776\> INA\<777\> INA\<778\> INA\<779\> INA\<780\> \
        INA\<781\> INA\<782\> INA\<783\> INA\<784\> INA\<785\> INA\<786\> \
        INA\<787\> INA\<788\> INA\<789\> INA\<790\> INA\<791\> INA\<792\> \
        INA\<793\> INA\<794\> INA\<795\> INA\<796\> INA\<797\> INA\<798\> \
        INA\<799\> INA\<800\> INA\<801\> INA\<802\> INA\<803\> INA\<804\> \
        INA\<805\> INA\<806\> INA\<807\> INA\<808\> INA\<809\> INA\<810\> \
        INA\<811\> INA\<812\> INA\<813\> INA\<814\> INA\<815\> INA\<816\> \
        INA\<817\> INA\<818\> INA\<819\> INA\<820\> INA\<821\> INA\<822\> \
        INA\<823\> INA\<824\> INA\<825\> INA\<826\> INA\<827\> INA\<828\> \
        INA\<829\> INA\<830\> INA\<831\> INA\<832\> INA\<833\> INA\<834\> \
        INA\<835\> INA\<836\> INA\<837\> INA\<838\> INA\<839\> INA\<840\> \
        INA\<841\> INA\<842\> INA\<843\> INA\<844\> INA\<845\> INA\<846\> \
        INA\<847\> INA\<848\> INA\<849\> INA\<850\> INA\<851\> INA\<852\> \
        INA\<853\> INA\<854\> INA\<855\> INA\<856\> INA\<857\> INA\<858\> \
        INA\<859\> INA\<860\> INA\<861\> INA\<862\> INA\<863\> INA\<864\> \
        INA\<865\> INA\<866\> INA\<867\> INA\<868\> INA\<869\> INA\<870\> \
        INA\<871\> INA\<872\> INA\<873\> INA\<874\> INA\<875\> INA\<876\> \
        INA\<877\> INA\<878\> INA\<879\> INA\<880\> INA\<881\> INA\<882\> \
        INA\<883\> INA\<884\> INA\<885\> INA\<886\> INA\<887\> INA\<888\> \
        INA\<889\> INA\<890\> INA\<891\> INA\<892\> INA\<893\> INA\<894\> \
        INA\<895\> INA\<896\> INA\<897\> INA\<898\> INA\<899\> INA\<900\> \
        INA\<901\> INA\<902\> INA\<903\> INA\<904\> INA\<905\> INA\<906\> \
        INA\<907\> INA\<908\> INA\<909\> INA\<910\> INA\<911\> INA\<912\> \
        INA\<913\> INA\<914\> INA\<915\> INA\<916\> INA\<917\> INA\<918\> \
        INA\<919\> INA\<920\> INA\<921\> INA\<922\> INA\<923\> INA\<924\> \
        INA\<925\> INA\<926\> INA\<927\> INA\<928\> INA\<929\> INA\<930\> \
        INA\<931\> INA\<932\> INA\<933\> INA\<934\> INA\<935\> INA\<936\> \
        INA\<937\> INA\<938\> INA\<939\> INA\<940\> INA\<941\> INA\<942\> \
        INA\<943\> INA\<944\> INA\<945\> INA\<946\> INA\<947\> INA\<948\> \
        INA\<949\> INA\<950\> INA\<951\> INA\<952\> INA\<953\> INA\<954\> \
        INA\<955\> INA\<956\> INA\<957\> INA\<958\> INA\<959\> INA\<960\> \
        INA\<961\> INA\<962\> INA\<963\> INA\<964\> INA\<965\> INA\<966\> \
        INA\<967\> INA\<968\> INA\<969\> INA\<970\> INA\<971\> INA\<972\> \
        INA\<973\> INA\<974\> INA\<975\> INA\<976\> INA\<977\> INA\<978\> \
        INA\<979\> INA\<980\> INA\<981\> INA\<982\> INA\<983\> INA\<984\> \
        INA\<985\> INA\<986\> INA\<987\> INA\<988\> INA\<989\> INA\<990\> \
        INA\<991\> INA\<992\> INA\<993\> INA\<994\> INA\<995\> INA\<996\> \
        INA\<997\> INA\<998\> INA\<999\> INB\<0\> INB\<1\> INB\<2\> \
        INB\<3\> INB\<4\> INB\<5\> INB\<6\> INB\<7\> INB\<8\> INB\<9\> \
        INB\<10\> INB\<11\> INB\<12\> INB\<13\> INB\<14\> INB\<15\> \
        INB\<16\> INB\<17\> INB\<18\> INB\<19\> INB\<20\> INB\<21\> \
        INB\<22\> INB\<23\> INB\<24\> INB\<25\> INB\<26\> INB\<27\> \
        INB\<28\> INB\<29\> INB\<30\> INB\<31\> INB\<32\> INB\<33\> \
        INB\<34\> INB\<35\> INB\<36\> INB\<37\> INB\<38\> INB\<39\> \
        INB\<40\> INB\<41\> INB\<42\> INB\<43\> INB\<44\> INB\<45\> \
        INB\<46\> INB\<47\> INB\<48\> INB\<49\> INB\<50\> INB\<51\> \
        INB\<52\> INB\<53\> INB\<54\> INB\<55\> INB\<56\> INB\<57\> \
        INB\<58\> INB\<59\> INB\<60\> INB\<61\> INB\<62\> INB\<63\> \
        INB\<64\> INB\<65\> INB\<66\> INB\<67\> INB\<68\> INB\<69\> \
        INB\<70\> INB\<71\> INB\<72\> INB\<73\> INB\<74\> INB\<75\> \
        INB\<76\> INB\<77\> INB\<78\> INB\<79\> INB\<80\> INB\<81\> \
        INB\<82\> INB\<83\> INB\<84\> INB\<85\> INB\<86\> INB\<87\> \
        INB\<88\> INB\<89\> INB\<90\> INB\<91\> INB\<92\> INB\<93\> \
        INB\<94\> INB\<95\> INB\<96\> INB\<97\> INB\<98\> INB\<99\> \
        INB\<100\> INB\<101\> INB\<102\> INB\<103\> INB\<104\> INB\<105\> \
        INB\<106\> INB\<107\> INB\<108\> INB\<109\> INB\<110\> INB\<111\> \
        INB\<112\> INB\<113\> INB\<114\> INB\<115\> INB\<116\> INB\<117\> \
        INB\<118\> INB\<119\> INB\<120\> INB\<121\> INB\<122\> INB\<123\> \
        INB\<124\> INB\<125\> INB\<126\> INB\<127\> INB\<128\> INB\<129\> \
        INB\<130\> INB\<131\> INB\<132\> INB\<133\> INB\<134\> INB\<135\> \
        INB\<136\> INB\<137\> INB\<138\> INB\<139\> INB\<140\> INB\<141\> \
        INB\<142\> INB\<143\> INB\<144\> INB\<145\> INB\<146\> INB\<147\> \
        INB\<148\> INB\<149\> INB\<150\> INB\<151\> INB\<152\> INB\<153\> \
        INB\<154\> INB\<155\> INB\<156\> INB\<157\> INB\<158\> INB\<159\> \
        INB\<160\> INB\<161\> INB\<162\> INB\<163\> INB\<164\> INB\<165\> \
        INB\<166\> INB\<167\> INB\<168\> INB\<169\> INB\<170\> INB\<171\> \
        INB\<172\> INB\<173\> INB\<174\> INB\<175\> INB\<176\> INB\<177\> \
        INB\<178\> INB\<179\> INB\<180\> INB\<181\> INB\<182\> INB\<183\> \
        INB\<184\> INB\<185\> INB\<186\> INB\<187\> INB\<188\> INB\<189\> \
        INB\<190\> INB\<191\> INB\<192\> INB\<193\> INB\<194\> INB\<195\> \
        INB\<196\> INB\<197\> INB\<198\> INB\<199\> INB\<200\> INB\<201\> \
        INB\<202\> INB\<203\> INB\<204\> INB\<205\> INB\<206\> INB\<207\> \
        INB\<208\> INB\<209\> INB\<210\> INB\<211\> INB\<212\> INB\<213\> \
        INB\<214\> INB\<215\> INB\<216\> INB\<217\> INB\<218\> INB\<219\> \
        INB\<220\> INB\<221\> INB\<222\> INB\<223\> INB\<224\> INB\<225\> \
        INB\<226\> INB\<227\> INB\<228\> INB\<229\> INB\<230\> INB\<231\> \
        INB\<232\> INB\<233\> INB\<234\> INB\<235\> INB\<236\> INB\<237\> \
        INB\<238\> INB\<239\> INB\<240\> INB\<241\> INB\<242\> INB\<243\> \
        INB\<244\> INB\<245\> INB\<246\> INB\<247\> INB\<248\> INB\<249\> \
        INB\<250\> INB\<251\> INB\<252\> INB\<253\> INB\<254\> INB\<255\> \
        INB\<256\> INB\<257\> INB\<258\> INB\<259\> INB\<260\> INB\<261\> \
        INB\<262\> INB\<263\> INB\<264\> INB\<265\> INB\<266\> INB\<267\> \
        INB\<268\> INB\<269\> INB\<270\> INB\<271\> INB\<272\> INB\<273\> \
        INB\<274\> INB\<275\> INB\<276\> INB\<277\> INB\<278\> INB\<279\> \
        INB\<280\> INB\<281\> INB\<282\> INB\<283\> INB\<284\> INB\<285\> \
        INB\<286\> INB\<287\> INB\<288\> INB\<289\> INB\<290\> INB\<291\> \
        INB\<292\> INB\<293\> INB\<294\> INB\<295\> INB\<296\> INB\<297\> \
        INB\<298\> INB\<299\> INB\<300\> INB\<301\> INB\<302\> INB\<303\> \
        INB\<304\> INB\<305\> INB\<306\> INB\<307\> INB\<308\> INB\<309\> \
        INB\<310\> INB\<311\> INB\<312\> INB\<313\> INB\<314\> INB\<315\> \
        INB\<316\> INB\<317\> INB\<318\> INB\<319\> INB\<320\> INB\<321\> \
        INB\<322\> INB\<323\> INB\<324\> INB\<325\> INB\<326\> INB\<327\> \
        INB\<328\> INB\<329\> INB\<330\> INB\<331\> INB\<332\> INB\<333\> \
        INB\<334\> INB\<335\> INB\<336\> INB\<337\> INB\<338\> INB\<339\> \
        INB\<340\> INB\<341\> INB\<342\> INB\<343\> INB\<344\> INB\<345\> \
        INB\<346\> INB\<347\> INB\<348\> INB\<349\> INB\<350\> INB\<351\> \
        INB\<352\> INB\<353\> INB\<354\> INB\<355\> INB\<356\> INB\<357\> \
        INB\<358\> INB\<359\> INB\<360\> INB\<361\> INB\<362\> INB\<363\> \
        INB\<364\> INB\<365\> INB\<366\> INB\<367\> INB\<368\> INB\<369\> \
        INB\<370\> INB\<371\> INB\<372\> INB\<373\> INB\<374\> INB\<375\> \
        INB\<376\> INB\<377\> INB\<378\> INB\<379\> INB\<380\> INB\<381\> \
        INB\<382\> INB\<383\> INB\<384\> INB\<385\> INB\<386\> INB\<387\> \
        INB\<388\> INB\<389\> INB\<390\> INB\<391\> INB\<392\> INB\<393\> \
        INB\<394\> INB\<395\> INB\<396\> INB\<397\> INB\<398\> INB\<399\> \
        INB\<400\> INB\<401\> INB\<402\> INB\<403\> INB\<404\> INB\<405\> \
        INB\<406\> INB\<407\> INB\<408\> INB\<409\> INB\<410\> INB\<411\> \
        INB\<412\> INB\<413\> INB\<414\> INB\<415\> INB\<416\> INB\<417\> \
        INB\<418\> INB\<419\> INB\<420\> INB\<421\> INB\<422\> INB\<423\> \
        INB\<424\> INB\<425\> INB\<426\> INB\<427\> INB\<428\> INB\<429\> \
        INB\<430\> INB\<431\> INB\<432\> INB\<433\> INB\<434\> INB\<435\> \
        INB\<436\> INB\<437\> INB\<438\> INB\<439\> INB\<440\> INB\<441\> \
        INB\<442\> INB\<443\> INB\<444\> INB\<445\> INB\<446\> INB\<447\> \
        INB\<448\> INB\<449\> INB\<450\> INB\<451\> INB\<452\> INB\<453\> \
        INB\<454\> INB\<455\> INB\<456\> INB\<457\> INB\<458\> INB\<459\> \
        INB\<460\> INB\<461\> INB\<462\> INB\<463\> INB\<464\> INB\<465\> \
        INB\<466\> INB\<467\> INB\<468\> INB\<469\> INB\<470\> INB\<471\> \
        INB\<472\> INB\<473\> INB\<474\> INB\<475\> INB\<476\> INB\<477\> \
        INB\<478\> INB\<479\> INB\<480\> INB\<481\> INB\<482\> INB\<483\> \
        INB\<484\> INB\<485\> INB\<486\> INB\<487\> INB\<488\> INB\<489\> \
        INB\<490\> INB\<491\> INB\<492\> INB\<493\> INB\<494\> INB\<495\> \
        INB\<496\> INB\<497\> INB\<498\> INB\<499\> INB\<500\> INB\<501\> \
        INB\<502\> INB\<503\> INB\<504\> INB\<505\> INB\<506\> INB\<507\> \
        INB\<508\> INB\<509\> INB\<510\> INB\<511\> INB\<512\> INB\<513\> \
        INB\<514\> INB\<515\> INB\<516\> INB\<517\> INB\<518\> INB\<519\> \
        INB\<520\> INB\<521\> INB\<522\> INB\<523\> INB\<524\> INB\<525\> \
        INB\<526\> INB\<527\> INB\<528\> INB\<529\> INB\<530\> INB\<531\> \
        INB\<532\> INB\<533\> INB\<534\> INB\<535\> INB\<536\> INB\<537\> \
        INB\<538\> INB\<539\> INB\<540\> INB\<541\> INB\<542\> INB\<543\> \
        INB\<544\> INB\<545\> INB\<546\> INB\<547\> INB\<548\> INB\<549\> \
        INB\<550\> INB\<551\> INB\<552\> INB\<553\> INB\<554\> INB\<555\> \
        INB\<556\> INB\<557\> INB\<558\> INB\<559\> INB\<560\> INB\<561\> \
        INB\<562\> INB\<563\> INB\<564\> INB\<565\> INB\<566\> INB\<567\> \
        INB\<568\> INB\<569\> INB\<570\> INB\<571\> INB\<572\> INB\<573\> \
        INB\<574\> INB\<575\> INB\<576\> INB\<577\> INB\<578\> INB\<579\> \
        INB\<580\> INB\<581\> INB\<582\> INB\<583\> INB\<584\> INB\<585\> \
        INB\<586\> INB\<587\> INB\<588\> INB\<589\> INB\<590\> INB\<591\> \
        INB\<592\> INB\<593\> INB\<594\> INB\<595\> INB\<596\> INB\<597\> \
        INB\<598\> INB\<599\> INB\<600\> INB\<601\> INB\<602\> INB\<603\> \
        INB\<604\> INB\<605\> INB\<606\> INB\<607\> INB\<608\> INB\<609\> \
        INB\<610\> INB\<611\> INB\<612\> INB\<613\> INB\<614\> INB\<615\> \
        INB\<616\> INB\<617\> INB\<618\> INB\<619\> INB\<620\> INB\<621\> \
        INB\<622\> INB\<623\> INB\<624\> INB\<625\> INB\<626\> INB\<627\> \
        INB\<628\> INB\<629\> INB\<630\> INB\<631\> INB\<632\> INB\<633\> \
        INB\<634\> INB\<635\> INB\<636\> INB\<637\> INB\<638\> INB\<639\> \
        INB\<640\> INB\<641\> INB\<642\> INB\<643\> INB\<644\> INB\<645\> \
        INB\<646\> INB\<647\> INB\<648\> INB\<649\> INB\<650\> INB\<651\> \
        INB\<652\> INB\<653\> INB\<654\> INB\<655\> INB\<656\> INB\<657\> \
        INB\<658\> INB\<659\> INB\<660\> INB\<661\> INB\<662\> INB\<663\> \
        INB\<664\> INB\<665\> INB\<666\> INB\<667\> INB\<668\> INB\<669\> \
        INB\<670\> INB\<671\> INB\<672\> INB\<673\> INB\<674\> INB\<675\> \
        INB\<676\> INB\<677\> INB\<678\> INB\<679\> INB\<680\> INB\<681\> \
        INB\<682\> INB\<683\> INB\<684\> INB\<685\> INB\<686\> INB\<687\> \
        INB\<688\> INB\<689\> INB\<690\> INB\<691\> INB\<692\> INB\<693\> \
        INB\<694\> INB\<695\> INB\<696\> INB\<697\> INB\<698\> INB\<699\> \
        INB\<700\> INB\<701\> INB\<702\> INB\<703\> INB\<704\> INB\<705\> \
        INB\<706\> INB\<707\> INB\<708\> INB\<709\> INB\<710\> INB\<711\> \
        INB\<712\> INB\<713\> INB\<714\> INB\<715\> INB\<716\> INB\<717\> \
        INB\<718\> INB\<719\> INB\<720\> INB\<721\> INB\<722\> INB\<723\> \
        INB\<724\> INB\<725\> INB\<726\> INB\<727\> INB\<728\> INB\<729\> \
        INB\<730\> INB\<731\> INB\<732\> INB\<733\> INB\<734\> INB\<735\> \
        INB\<736\> INB\<737\> INB\<738\> INB\<739\> INB\<740\> INB\<741\> \
        INB\<742\> INB\<743\> INB\<744\> INB\<745\> INB\<746\> INB\<747\> \
        INB\<748\> INB\<749\> INB\<750\> INB\<751\> INB\<752\> INB\<753\> \
        INB\<754\> INB\<755\> INB\<756\> INB\<757\> INB\<758\> INB\<759\> \
        INB\<760\> INB\<761\> INB\<762\> INB\<763\> INB\<764\> INB\<765\> \
        INB\<766\> INB\<767\> INB\<768\> INB\<769\> INB\<770\> INB\<771\> \
        INB\<772\> INB\<773\> INB\<774\> INB\<775\> INB\<776\> INB\<777\> \
        INB\<778\> INB\<779\> INB\<780\> INB\<781\> INB\<782\> INB\<783\> \